** Generated for: hspiceD
** Generated on: Sep 14 17:59:54 2014
** Design library name: dummy_4_bit
** Design cell name: test_OAI21
** Design view name: schematic
.GLOBAL vdd! _gnet0 vss!
.PARAM cap=0.663f vdd=1 v_low=0 buff_vdd=vdd v_hig=vdd


.TRAN 100e-12 1e-6 START=0.0

.OP

.TEMP 25
.OPTION
+    ARTIST=2
+    INGOLD=2
+    PARHIER=LOCAL
+    PSF=2
+    post=1
.PROBE TRAN V(a) V(b1) V(b2) V(a_in) V(b1_in) V(b2_in) V(output) V(Vpower)
.INCLUDE "/ad/eng/users/b/o/bobzhou/Desktop/571/hw3/tech_files/45nm_HP.pm"

** Library name: NangateOpenCellLibrary
** Cell name: OAI21_X2
** View name: schematic
.subckt OAI21_X2 a b1 b2 zn
m_i_2_0 vss! a net_0 vss! NMOS_VTL L=50e-9 W=415e-9
m_i_2_1 net_0 a vss! vss! NMOS_VTL L=50e-9 W=415e-9
m_i_1__m0 zn b2 net_0 vss! NMOS_VTL L=50e-9 W=415e-9
m_i_1__m1 net_0 b2 zn vss! NMOS_VTL L=50e-9 W=415e-9
m_i_0__m0 net_0 b1 zn vss! NMOS_VTL L=50e-9 W=415e-9
m_i_0__m1 zn b1 net_0 vss! NMOS_VTL L=50e-9 W=415e-9
m_i_3__m0 zn b1 net_1__m0_0 _gnet0 PMOS_VTL L=50e-9 W=630e-9
m_i_4__m0 net_1__m0_0 b2 _gnet0 _gnet0 PMOS_VTL L=50e-9 W=630e-9
m_i_3__m1 net_1__m1 b1 zn _gnet0 PMOS_VTL L=50e-9 W=630e-9
m_i_4__m1 _gnet0 b2 net_1__m1 _gnet0 PMOS_VTL L=50e-9 W=630e-9
m_i_5_0 zn a _gnet0 _gnet0 PMOS_VTL L=50e-9 W=630e-9
m_i_5_1 _gnet0 a zn _gnet0 PMOS_VTL L=50e-9 W=630e-9
.ends OAI21_X2
** End of subcircuit definition.

** Library name: equalized_logic
** Cell name: buffer4test
** View name: schematic
.subckt buffer4test buff_vdd buff_vss input output inh_bulk_n inh_bulk_p
m1 output net14 buff_vdd inh_bulk_p pmos_vtl L=50e-9 W=1.26e-6
m3 net14 input buff_vdd inh_bulk_p pmos_vtl L=50e-9 W=1.26e-6
m0 output net14 buff_vss inh_bulk_n nmos_vtl L=50e-9 W=830e-9
m9 net14 input buff_vss inh_bulk_n nmos_vtl L=50e-9 W=830e-9
.ends buffer4test
** End of subcircuit definition.

** Library name: dummy_4_bit
** Cell name: test_OAI21
** View name: schematic
xi15 a_in b1_in b2_in output OAI21_X2
f0 vpower 0 CCCS v3  1 M=1
v10 buff_vss 0 DC=0
v8 buff_vdd 0 DC=buff_vdd
v6 vss! 0 DC=0
v3 _gnet0 0 DC=vdd
xi18 buff_vdd buff_vss b2 b2_in 0 vdd! buffer4test
xi17 buff_vdd buff_vss b1 b1_in 0 vdd! buffer4test
xi16 buff_vdd buff_vss a a_in 0 vdd! buffer4test
c10 vpower 0 1e-12 IC=0
c0 output 0 663e-18
v4 b2 0 PWL
+ 1.000000000e-12 V_hig
+ 1.000000000e-09 V_hig
+ 1.001000000e-09 V_hig
+ 1.100000000e-09 V_hig
+ 1.101000000e-09 V_hig
+ 1.200000000e-09 V_hig
+ 1.201000000e-09 V_hig
+ 1.300000000e-09 V_hig
+ 1.301000000e-09 V_hig
+ 1.400000000e-09 V_hig
+ 1.401000000e-09 V_hig
+ 1.500000000e-09 V_hig
+ 1.501000000e-09 V_hig
+ 1.600000000e-09 V_hig
+ 1.601000000e-09 V_hig
+ 1.700000000e-09 V_hig
+ 1.701000000e-09 V_hig
+ 1.800000000e-09 V_hig
+ 1.801000000e-09 V_hig
+ 1.900000000e-09 V_hig
+ 1.901000000e-09 V_hig
+ 2.000000000e-09 V_hig
+ 2.001000000e-09 V_hig
+ 2.100000000e-09 V_hig
+ 2.101000000e-09 V_hig
+ 2.200000000e-09 V_hig
+ 2.201000000e-09 V_hig
+ 2.300000000e-09 V_hig
+ 2.301000000e-09 V_hig
+ 2.400000000e-09 V_hig
+ 2.401000000e-09 V_hig
+ 2.500000000e-09 V_hig
+ 2.501000000e-09 V_hig
+ 2.600000000e-09 V_hig
+ 2.601000000e-09 V_hig
+ 2.700000000e-09 V_hig
+ 2.701000000e-09 V_hig
+ 2.800000000e-09 V_hig
+ 2.801000000e-09 V_hig
+ 2.900000000e-09 V_hig
+ 2.901000000e-09 V_low
+ 3.000000000e-09 V_low
+ 3.001000000e-09 V_low
+ 3.100000000e-09 V_low
+ 3.101000000e-09 V_low
+ 3.200000000e-09 V_low
+ 3.201000000e-09 V_low
+ 3.300000000e-09 V_low
+ 3.301000000e-09 V_low
+ 3.400000000e-09 V_low
+ 3.401000000e-09 V_low
+ 3.500000000e-09 V_low
+ 3.501000000e-09 V_low
+ 3.600000000e-09 V_low
+ 3.601000000e-09 V_low
+ 3.700000000e-09 V_low
+ 3.701000000e-09 V_low
+ 3.800000000e-09 V_low
+ 3.801000000e-09 V_low
+ 3.900000000e-09 V_low
+ 3.901000000e-09 V_low
+ 4.000000000e-09 V_low
+ 4.001000000e-09 V_low
+ 4.100000000e-09 V_low
+ 4.101000000e-09 V_low
+ 4.200000000e-09 V_low
+ 4.201000000e-09 V_low
+ 4.300000000e-09 V_low
+ 4.301000000e-09 V_low
+ 4.400000000e-09 V_low
+ 4.401000000e-09 V_low
+ 4.500000000e-09 V_low
+ 4.501000000e-09 V_low
+ 4.600000000e-09 V_low
+ 4.601000000e-09 V_low
+ 4.700000000e-09 V_low
+ 4.701000000e-09 V_low
+ 4.800000000e-09 V_low
+ 4.801000000e-09 V_low
+ 4.900000000e-09 V_low
+ 4.901000000e-09 V_hig
+ 5.000000000e-09 V_hig
+ 5.001000000e-09 V_hig
+ 5.100000000e-09 V_hig
+ 5.101000000e-09 V_hig
+ 5.200000000e-09 V_hig
+ 5.201000000e-09 V_hig
+ 5.300000000e-09 V_hig
+ 5.301000000e-09 V_hig
+ 5.400000000e-09 V_hig
+ 5.401000000e-09 V_hig
+ 5.500000000e-09 V_hig
+ 5.501000000e-09 V_hig
+ 5.600000000e-09 V_hig
+ 5.601000000e-09 V_hig
+ 5.700000000e-09 V_hig
+ 5.701000000e-09 V_hig
+ 5.800000000e-09 V_hig
+ 5.801000000e-09 V_hig
+ 5.900000000e-09 V_hig
+ 5.901000000e-09 V_low
+ 6.000000000e-09 V_low
+ 6.001000000e-09 V_low
+ 6.100000000e-09 V_low
+ 6.101000000e-09 V_low
+ 6.200000000e-09 V_low
+ 6.201000000e-09 V_low
+ 6.300000000e-09 V_low
+ 6.301000000e-09 V_low
+ 6.400000000e-09 V_low
+ 6.401000000e-09 V_low
+ 6.500000000e-09 V_low
+ 6.501000000e-09 V_low
+ 6.600000000e-09 V_low
+ 6.601000000e-09 V_low
+ 6.700000000e-09 V_low
+ 6.701000000e-09 V_low
+ 6.800000000e-09 V_low
+ 6.801000000e-09 V_low
+ 6.900000000e-09 V_low
+ 6.901000000e-09 V_hig
+ 7.000000000e-09 V_hig
+ 7.001000000e-09 V_hig
+ 7.100000000e-09 V_hig
+ 7.101000000e-09 V_hig
+ 7.200000000e-09 V_hig
+ 7.201000000e-09 V_hig
+ 7.300000000e-09 V_hig
+ 7.301000000e-09 V_hig
+ 7.400000000e-09 V_hig
+ 7.401000000e-09 V_hig
+ 7.500000000e-09 V_hig
+ 7.501000000e-09 V_hig
+ 7.600000000e-09 V_hig
+ 7.601000000e-09 V_hig
+ 7.700000000e-09 V_hig
+ 7.701000000e-09 V_hig
+ 7.800000000e-09 V_hig
+ 7.801000000e-09 V_hig
+ 7.900000000e-09 V_hig
+ 7.901000000e-09 V_low
+ 8.000000000e-09 V_low
+ 8.001000000e-09 V_low
+ 8.100000000e-09 V_low
+ 8.101000000e-09 V_low
+ 8.200000000e-09 V_low
+ 8.201000000e-09 V_low
+ 8.300000000e-09 V_low
+ 8.301000000e-09 V_low
+ 8.400000000e-09 V_low
+ 8.401000000e-09 V_low
+ 8.500000000e-09 V_low
+ 8.501000000e-09 V_low
+ 8.600000000e-09 V_low
+ 8.601000000e-09 V_low
+ 8.700000000e-09 V_low
+ 8.701000000e-09 V_low
+ 8.800000000e-09 V_low
+ 8.801000000e-09 V_low
+ 8.900000000e-09 V_low
+ 8.901000000e-09 V_low
+ 9.000000000e-09 V_low
+ 9.001000000e-09 V_low
+ 9.100000000e-09 V_low
+ 9.101000000e-09 V_low
+ 9.200000000e-09 V_low
+ 9.201000000e-09 V_low
+ 9.300000000e-09 V_low
+ 9.301000000e-09 V_low
+ 9.400000000e-09 V_low
+ 9.401000000e-09 V_low
+ 9.500000000e-09 V_low
+ 9.501000000e-09 V_low
+ 9.600000000e-09 V_low
+ 9.601000000e-09 V_low
+ 9.700000000e-09 V_low
+ 9.701000000e-09 V_low
+ 9.800000000e-09 V_low
+ 9.801000000e-09 V_low
+ 9.900000000e-09 V_low
+ 9.901000000e-09 V_hig
+ 1.000000000e-08 V_hig
+ 1.000100000e-08 V_hig
+ 1.010000000e-08 V_hig
+ 1.010100000e-08 V_hig
+ 1.020000000e-08 V_hig
+ 1.020100000e-08 V_hig
+ 1.030000000e-08 V_hig
+ 1.030100000e-08 V_hig
+ 1.040000000e-08 V_hig
+ 1.040100000e-08 V_hig
+ 1.050000000e-08 V_hig
+ 1.050100000e-08 V_hig
+ 1.060000000e-08 V_hig
+ 1.060100000e-08 V_hig
+ 1.070000000e-08 V_hig
+ 1.070100000e-08 V_hig
+ 1.080000000e-08 V_hig
+ 1.080100000e-08 V_hig
+ 1.090000000e-08 V_hig
+ 1.090100000e-08 V_low
+ 1.100000000e-08 V_low
+ 1.100100000e-08 V_low
+ 1.110000000e-08 V_low
+ 1.110100000e-08 V_low
+ 1.120000000e-08 V_low
+ 1.120100000e-08 V_low
+ 1.130000000e-08 V_low
+ 1.130100000e-08 V_low
+ 1.140000000e-08 V_low
+ 1.140100000e-08 V_low
+ 1.150000000e-08 V_low
+ 1.150100000e-08 V_low
+ 1.160000000e-08 V_low
+ 1.160100000e-08 V_low
+ 1.170000000e-08 V_low
+ 1.170100000e-08 V_low
+ 1.180000000e-08 V_low
+ 1.180100000e-08 V_low
+ 1.190000000e-08 V_low
+ 1.190100000e-08 V_hig
+ 1.200000000e-08 V_hig
+ 1.200100000e-08 V_hig
+ 1.210000000e-08 V_hig
+ 1.210100000e-08 V_hig
+ 1.220000000e-08 V_hig
+ 1.220100000e-08 V_hig
+ 1.230000000e-08 V_hig
+ 1.230100000e-08 V_hig
+ 1.240000000e-08 V_hig
+ 1.240100000e-08 V_hig
+ 1.250000000e-08 V_hig
+ 1.250100000e-08 V_hig
+ 1.260000000e-08 V_hig
+ 1.260100000e-08 V_hig
+ 1.270000000e-08 V_hig
+ 1.270100000e-08 V_hig
+ 1.280000000e-08 V_hig
+ 1.280100000e-08 V_hig
+ 1.290000000e-08 V_hig
+ 1.290100000e-08 V_low
+ 1.300000000e-08 V_low
+ 1.300100000e-08 V_low
+ 1.310000000e-08 V_low
+ 1.310100000e-08 V_low
+ 1.320000000e-08 V_low
+ 1.320100000e-08 V_low
+ 1.330000000e-08 V_low
+ 1.330100000e-08 V_low
+ 1.340000000e-08 V_low
+ 1.340100000e-08 V_low
+ 1.350000000e-08 V_low
+ 1.350100000e-08 V_low
+ 1.360000000e-08 V_low
+ 1.360100000e-08 V_low
+ 1.370000000e-08 V_low
+ 1.370100000e-08 V_low
+ 1.380000000e-08 V_low
+ 1.380100000e-08 V_low
+ 1.390000000e-08 V_low
+ 1.390100000e-08 V_hig
+ 1.400000000e-08 V_hig
+ 1.400100000e-08 V_hig
+ 1.410000000e-08 V_hig
+ 1.410100000e-08 V_hig
+ 1.420000000e-08 V_hig
+ 1.420100000e-08 V_hig
+ 1.430000000e-08 V_hig
+ 1.430100000e-08 V_hig
+ 1.440000000e-08 V_hig
+ 1.440100000e-08 V_hig
+ 1.450000000e-08 V_hig
+ 1.450100000e-08 V_hig
+ 1.460000000e-08 V_hig
+ 1.460100000e-08 V_hig
+ 1.470000000e-08 V_hig
+ 1.470100000e-08 V_hig
+ 1.480000000e-08 V_hig
+ 1.480100000e-08 V_hig
+ 1.490000000e-08 V_hig
+ 1.490100000e-08 V_hig
+ 1.500000000e-08 V_hig
+ 1.500100000e-08 V_hig
+ 1.510000000e-08 V_hig
+ 1.510100000e-08 V_hig
+ 1.520000000e-08 V_hig
+ 1.520100000e-08 V_hig
+ 1.530000000e-08 V_hig
+ 1.530100000e-08 V_hig
+ 1.540000000e-08 V_hig
+ 1.540100000e-08 V_hig
+ 1.550000000e-08 V_hig
+ 1.550100000e-08 V_hig
+ 1.560000000e-08 V_hig
+ 1.560100000e-08 V_hig
+ 1.570000000e-08 V_hig
+ 1.570100000e-08 V_hig
+ 1.580000000e-08 V_hig
+ 1.580100000e-08 V_hig
+ 1.590000000e-08 V_hig
+ 1.590100000e-08 V_hig
+ 1.600000000e-08 V_hig
+ 1.600100000e-08 V_hig
+ 1.610000000e-08 V_hig
+ 1.610100000e-08 V_hig
+ 1.620000000e-08 V_hig
+ 1.620100000e-08 V_hig
+ 1.630000000e-08 V_hig
+ 1.630100000e-08 V_hig
+ 1.640000000e-08 V_hig
+ 1.640100000e-08 V_hig
+ 1.650000000e-08 V_hig
+ 1.650100000e-08 V_hig
+ 1.660000000e-08 V_hig
+ 1.660100000e-08 V_hig
+ 1.670000000e-08 V_hig
+ 1.670100000e-08 V_hig
+ 1.680000000e-08 V_hig
+ 1.680100000e-08 V_hig
+ 1.690000000e-08 V_hig
+ 1.690100000e-08 V_hig
+ 1.700000000e-08 V_hig
+ 1.700100000e-08 V_hig
+ 1.710000000e-08 V_hig
+ 1.710100000e-08 V_hig
+ 1.720000000e-08 V_hig
+ 1.720100000e-08 V_hig
+ 1.730000000e-08 V_hig
+ 1.730100000e-08 V_hig
+ 1.740000000e-08 V_hig
+ 1.740100000e-08 V_hig
+ 1.750000000e-08 V_hig
+ 1.750100000e-08 V_hig
+ 1.760000000e-08 V_hig
+ 1.760100000e-08 V_hig
+ 1.770000000e-08 V_hig
+ 1.770100000e-08 V_hig
+ 1.780000000e-08 V_hig
+ 1.780100000e-08 V_hig
+ 1.790000000e-08 V_hig
+ 1.790100000e-08 V_hig
+ 1.800000000e-08 V_hig
+ 1.800100000e-08 V_hig
+ 1.810000000e-08 V_hig
+ 1.810100000e-08 V_hig
+ 1.820000000e-08 V_hig
+ 1.820100000e-08 V_hig
+ 1.830000000e-08 V_hig
+ 1.830100000e-08 V_hig
+ 1.840000000e-08 V_hig
+ 1.840100000e-08 V_hig
+ 1.850000000e-08 V_hig
+ 1.850100000e-08 V_hig
+ 1.860000000e-08 V_hig
+ 1.860100000e-08 V_hig
+ 1.870000000e-08 V_hig
+ 1.870100000e-08 V_hig
+ 1.880000000e-08 V_hig
+ 1.880100000e-08 V_hig
+ 1.890000000e-08 V_hig
+ 1.890100000e-08 V_low
+ 1.900000000e-08 V_low
+ 1.900100000e-08 V_low
+ 1.910000000e-08 V_low
+ 1.910100000e-08 V_low
+ 1.920000000e-08 V_low
+ 1.920100000e-08 V_low
+ 1.930000000e-08 V_low
+ 1.930100000e-08 V_low
+ 1.940000000e-08 V_low
+ 1.940100000e-08 V_low
+ 1.950000000e-08 V_low
+ 1.950100000e-08 V_low
+ 1.960000000e-08 V_low
+ 1.960100000e-08 V_low
+ 1.970000000e-08 V_low
+ 1.970100000e-08 V_low
+ 1.980000000e-08 V_low
+ 1.980100000e-08 V_low
+ 1.990000000e-08 V_low
+ 1.990100000e-08 V_hig
+ 2.000000000e-08 V_hig
+ 2.000100000e-08 V_hig
+ 2.010000000e-08 V_hig
+ 2.010100000e-08 V_hig
+ 2.020000000e-08 V_hig
+ 2.020100000e-08 V_hig
+ 2.030000000e-08 V_hig
+ 2.030100000e-08 V_hig
+ 2.040000000e-08 V_hig
+ 2.040100000e-08 V_hig
+ 2.050000000e-08 V_hig
+ 2.050100000e-08 V_hig
+ 2.060000000e-08 V_hig
+ 2.060100000e-08 V_hig
+ 2.070000000e-08 V_hig
+ 2.070100000e-08 V_hig
+ 2.080000000e-08 V_hig
+ 2.080100000e-08 V_hig
+ 2.090000000e-08 V_hig
+ 2.090100000e-08 V_hig
+ 2.100000000e-08 V_hig
+ 2.100100000e-08 V_hig
+ 2.110000000e-08 V_hig
+ 2.110100000e-08 V_hig
+ 2.120000000e-08 V_hig
+ 2.120100000e-08 V_hig
+ 2.130000000e-08 V_hig
+ 2.130100000e-08 V_hig
+ 2.140000000e-08 V_hig
+ 2.140100000e-08 V_hig
+ 2.150000000e-08 V_hig
+ 2.150100000e-08 V_hig
+ 2.160000000e-08 V_hig
+ 2.160100000e-08 V_hig
+ 2.170000000e-08 V_hig
+ 2.170100000e-08 V_hig
+ 2.180000000e-08 V_hig
+ 2.180100000e-08 V_hig
+ 2.190000000e-08 V_hig
+ 2.190100000e-08 V_low
+ 2.200000000e-08 V_low
+ 2.200100000e-08 V_low
+ 2.210000000e-08 V_low
+ 2.210100000e-08 V_low
+ 2.220000000e-08 V_low
+ 2.220100000e-08 V_low
+ 2.230000000e-08 V_low
+ 2.230100000e-08 V_low
+ 2.240000000e-08 V_low
+ 2.240100000e-08 V_low
+ 2.250000000e-08 V_low
+ 2.250100000e-08 V_low
+ 2.260000000e-08 V_low
+ 2.260100000e-08 V_low
+ 2.270000000e-08 V_low
+ 2.270100000e-08 V_low
+ 2.280000000e-08 V_low
+ 2.280100000e-08 V_low
+ 2.290000000e-08 V_low
+ 2.290100000e-08 V_hig
+ 2.300000000e-08 V_hig
+ 2.300100000e-08 V_hig
+ 2.310000000e-08 V_hig
+ 2.310100000e-08 V_hig
+ 2.320000000e-08 V_hig
+ 2.320100000e-08 V_hig
+ 2.330000000e-08 V_hig
+ 2.330100000e-08 V_hig
+ 2.340000000e-08 V_hig
+ 2.340100000e-08 V_hig
+ 2.350000000e-08 V_hig
+ 2.350100000e-08 V_hig
+ 2.360000000e-08 V_hig
+ 2.360100000e-08 V_hig
+ 2.370000000e-08 V_hig
+ 2.370100000e-08 V_hig
+ 2.380000000e-08 V_hig
+ 2.380100000e-08 V_hig
+ 2.390000000e-08 V_hig
+ 2.390100000e-08 V_hig
+ 2.400000000e-08 V_hig
+ 2.400100000e-08 V_hig
+ 2.410000000e-08 V_hig
+ 2.410100000e-08 V_hig
+ 2.420000000e-08 V_hig
+ 2.420100000e-08 V_hig
+ 2.430000000e-08 V_hig
+ 2.430100000e-08 V_hig
+ 2.440000000e-08 V_hig
+ 2.440100000e-08 V_hig
+ 2.450000000e-08 V_hig
+ 2.450100000e-08 V_hig
+ 2.460000000e-08 V_hig
+ 2.460100000e-08 V_hig
+ 2.470000000e-08 V_hig
+ 2.470100000e-08 V_hig
+ 2.480000000e-08 V_hig
+ 2.480100000e-08 V_hig
+ 2.490000000e-08 V_hig
+ 2.490100000e-08 V_low
+ 2.500000000e-08 V_low
+ 2.500100000e-08 V_low
+ 2.510000000e-08 V_low
+ 2.510100000e-08 V_low
+ 2.520000000e-08 V_low
+ 2.520100000e-08 V_low
+ 2.530000000e-08 V_low
+ 2.530100000e-08 V_low
+ 2.540000000e-08 V_low
+ 2.540100000e-08 V_low
+ 2.550000000e-08 V_low
+ 2.550100000e-08 V_low
+ 2.560000000e-08 V_low
+ 2.560100000e-08 V_low
+ 2.570000000e-08 V_low
+ 2.570100000e-08 V_low
+ 2.580000000e-08 V_low
+ 2.580100000e-08 V_low
+ 2.590000000e-08 V_low
+ 2.590100000e-08 V_low
+ 2.600000000e-08 V_low
+ 2.600100000e-08 V_low
+ 2.610000000e-08 V_low
+ 2.610100000e-08 V_low
+ 2.620000000e-08 V_low
+ 2.620100000e-08 V_low
+ 2.630000000e-08 V_low
+ 2.630100000e-08 V_low
+ 2.640000000e-08 V_low
+ 2.640100000e-08 V_low
+ 2.650000000e-08 V_low
+ 2.650100000e-08 V_low
+ 2.660000000e-08 V_low
+ 2.660100000e-08 V_low
+ 2.670000000e-08 V_low
+ 2.670100000e-08 V_low
+ 2.680000000e-08 V_low
+ 2.680100000e-08 V_low
+ 2.690000000e-08 V_low
+ 2.690100000e-08 V_hig
+ 2.700000000e-08 V_hig
+ 2.700100000e-08 V_hig
+ 2.710000000e-08 V_hig
+ 2.710100000e-08 V_hig
+ 2.720000000e-08 V_hig
+ 2.720100000e-08 V_hig
+ 2.730000000e-08 V_hig
+ 2.730100000e-08 V_hig
+ 2.740000000e-08 V_hig
+ 2.740100000e-08 V_hig
+ 2.750000000e-08 V_hig
+ 2.750100000e-08 V_hig
+ 2.760000000e-08 V_hig
+ 2.760100000e-08 V_hig
+ 2.770000000e-08 V_hig
+ 2.770100000e-08 V_hig
+ 2.780000000e-08 V_hig
+ 2.780100000e-08 V_hig
+ 2.790000000e-08 V_hig
+ 2.790100000e-08 V_low
+ 2.800000000e-08 V_low
+ 2.800100000e-08 V_low
+ 2.810000000e-08 V_low
+ 2.810100000e-08 V_low
+ 2.820000000e-08 V_low
+ 2.820100000e-08 V_low
+ 2.830000000e-08 V_low
+ 2.830100000e-08 V_low
+ 2.840000000e-08 V_low
+ 2.840100000e-08 V_low
+ 2.850000000e-08 V_low
+ 2.850100000e-08 V_low
+ 2.860000000e-08 V_low
+ 2.860100000e-08 V_low
+ 2.870000000e-08 V_low
+ 2.870100000e-08 V_low
+ 2.880000000e-08 V_low
+ 2.880100000e-08 V_low
+ 2.890000000e-08 V_low
+ 2.890100000e-08 V_low
+ 2.900000000e-08 V_low
+ 2.900100000e-08 V_low
+ 2.910000000e-08 V_low
+ 2.910100000e-08 V_low
+ 2.920000000e-08 V_low
+ 2.920100000e-08 V_low
+ 2.930000000e-08 V_low
+ 2.930100000e-08 V_low
+ 2.940000000e-08 V_low
+ 2.940100000e-08 V_low
+ 2.950000000e-08 V_low
+ 2.950100000e-08 V_low
+ 2.960000000e-08 V_low
+ 2.960100000e-08 V_low
+ 2.970000000e-08 V_low
+ 2.970100000e-08 V_low
+ 2.980000000e-08 V_low
+ 2.980100000e-08 V_low
+ 2.990000000e-08 V_low
+ 2.990100000e-08 V_low
+ 3.000000000e-08 V_low
+ 3.000100000e-08 V_low
+ 3.010000000e-08 V_low
+ 3.010100000e-08 V_low
+ 3.020000000e-08 V_low
+ 3.020100000e-08 V_low
+ 3.030000000e-08 V_low
+ 3.030100000e-08 V_low
+ 3.040000000e-08 V_low
+ 3.040100000e-08 V_low
+ 3.050000000e-08 V_low
+ 3.050100000e-08 V_low
+ 3.060000000e-08 V_low
+ 3.060100000e-08 V_low
+ 3.070000000e-08 V_low
+ 3.070100000e-08 V_low
+ 3.080000000e-08 V_low
+ 3.080100000e-08 V_low
+ 3.090000000e-08 V_low
+ 3.090100000e-08 V_hig
+ 3.100000000e-08 V_hig
+ 3.100100000e-08 V_hig
+ 3.110000000e-08 V_hig
+ 3.110100000e-08 V_hig
+ 3.120000000e-08 V_hig
+ 3.120100000e-08 V_hig
+ 3.130000000e-08 V_hig
+ 3.130100000e-08 V_hig
+ 3.140000000e-08 V_hig
+ 3.140100000e-08 V_hig
+ 3.150000000e-08 V_hig
+ 3.150100000e-08 V_hig
+ 3.160000000e-08 V_hig
+ 3.160100000e-08 V_hig
+ 3.170000000e-08 V_hig
+ 3.170100000e-08 V_hig
+ 3.180000000e-08 V_hig
+ 3.180100000e-08 V_hig
+ 3.190000000e-08 V_hig
+ 3.190100000e-08 V_hig
+ 3.200000000e-08 V_hig
+ 3.200100000e-08 V_hig
+ 3.210000000e-08 V_hig
+ 3.210100000e-08 V_hig
+ 3.220000000e-08 V_hig
+ 3.220100000e-08 V_hig
+ 3.230000000e-08 V_hig
+ 3.230100000e-08 V_hig
+ 3.240000000e-08 V_hig
+ 3.240100000e-08 V_hig
+ 3.250000000e-08 V_hig
+ 3.250100000e-08 V_hig
+ 3.260000000e-08 V_hig
+ 3.260100000e-08 V_hig
+ 3.270000000e-08 V_hig
+ 3.270100000e-08 V_hig
+ 3.280000000e-08 V_hig
+ 3.280100000e-08 V_hig
+ 3.290000000e-08 V_hig
+ 3.290100000e-08 V_low
+ 3.300000000e-08 V_low
+ 3.300100000e-08 V_low
+ 3.310000000e-08 V_low
+ 3.310100000e-08 V_low
+ 3.320000000e-08 V_low
+ 3.320100000e-08 V_low
+ 3.330000000e-08 V_low
+ 3.330100000e-08 V_low
+ 3.340000000e-08 V_low
+ 3.340100000e-08 V_low
+ 3.350000000e-08 V_low
+ 3.350100000e-08 V_low
+ 3.360000000e-08 V_low
+ 3.360100000e-08 V_low
+ 3.370000000e-08 V_low
+ 3.370100000e-08 V_low
+ 3.380000000e-08 V_low
+ 3.380100000e-08 V_low
+ 3.390000000e-08 V_low
+ 3.390100000e-08 V_low
+ 3.400000000e-08 V_low
+ 3.400100000e-08 V_low
+ 3.410000000e-08 V_low
+ 3.410100000e-08 V_low
+ 3.420000000e-08 V_low
+ 3.420100000e-08 V_low
+ 3.430000000e-08 V_low
+ 3.430100000e-08 V_low
+ 3.440000000e-08 V_low
+ 3.440100000e-08 V_low
+ 3.450000000e-08 V_low
+ 3.450100000e-08 V_low
+ 3.460000000e-08 V_low
+ 3.460100000e-08 V_low
+ 3.470000000e-08 V_low
+ 3.470100000e-08 V_low
+ 3.480000000e-08 V_low
+ 3.480100000e-08 V_low
+ 3.490000000e-08 V_low
+ 3.490100000e-08 V_hig
+ 3.500000000e-08 V_hig
+ 3.500100000e-08 V_hig
+ 3.510000000e-08 V_hig
+ 3.510100000e-08 V_hig
+ 3.520000000e-08 V_hig
+ 3.520100000e-08 V_hig
+ 3.530000000e-08 V_hig
+ 3.530100000e-08 V_hig
+ 3.540000000e-08 V_hig
+ 3.540100000e-08 V_hig
+ 3.550000000e-08 V_hig
+ 3.550100000e-08 V_hig
+ 3.560000000e-08 V_hig
+ 3.560100000e-08 V_hig
+ 3.570000000e-08 V_hig
+ 3.570100000e-08 V_hig
+ 3.580000000e-08 V_hig
+ 3.580100000e-08 V_hig
+ 3.590000000e-08 V_hig
+ 3.590100000e-08 V_low
+ 3.600000000e-08 V_low
+ 3.600100000e-08 V_low
+ 3.610000000e-08 V_low
+ 3.610100000e-08 V_low
+ 3.620000000e-08 V_low
+ 3.620100000e-08 V_low
+ 3.630000000e-08 V_low
+ 3.630100000e-08 V_low
+ 3.640000000e-08 V_low
+ 3.640100000e-08 V_low
+ 3.650000000e-08 V_low
+ 3.650100000e-08 V_low
+ 3.660000000e-08 V_low
+ 3.660100000e-08 V_low
+ 3.670000000e-08 V_low
+ 3.670100000e-08 V_low
+ 3.680000000e-08 V_low
+ 3.680100000e-08 V_low
+ 3.690000000e-08 V_low
+ 3.690100000e-08 V_low
+ 3.700000000e-08 V_low
+ 3.700100000e-08 V_low
+ 3.710000000e-08 V_low
+ 3.710100000e-08 V_low
+ 3.720000000e-08 V_low
+ 3.720100000e-08 V_low
+ 3.730000000e-08 V_low
+ 3.730100000e-08 V_low
+ 3.740000000e-08 V_low
+ 3.740100000e-08 V_low
+ 3.750000000e-08 V_low
+ 3.750100000e-08 V_low
+ 3.760000000e-08 V_low
+ 3.760100000e-08 V_low
+ 3.770000000e-08 V_low
+ 3.770100000e-08 V_low
+ 3.780000000e-08 V_low
+ 3.780100000e-08 V_low
+ 3.790000000e-08 V_low
+ 3.790100000e-08 V_hig
+ 3.800000000e-08 V_hig
+ 3.800100000e-08 V_hig
+ 3.810000000e-08 V_hig
+ 3.810100000e-08 V_hig
+ 3.820000000e-08 V_hig
+ 3.820100000e-08 V_hig
+ 3.830000000e-08 V_hig
+ 3.830100000e-08 V_hig
+ 3.840000000e-08 V_hig
+ 3.840100000e-08 V_hig
+ 3.850000000e-08 V_hig
+ 3.850100000e-08 V_hig
+ 3.860000000e-08 V_hig
+ 3.860100000e-08 V_hig
+ 3.870000000e-08 V_hig
+ 3.870100000e-08 V_hig
+ 3.880000000e-08 V_hig
+ 3.880100000e-08 V_hig
+ 3.890000000e-08 V_hig
+ 3.890100000e-08 V_low
+ 3.900000000e-08 V_low
+ 3.900100000e-08 V_low
+ 3.910000000e-08 V_low
+ 3.910100000e-08 V_low
+ 3.920000000e-08 V_low
+ 3.920100000e-08 V_low
+ 3.930000000e-08 V_low
+ 3.930100000e-08 V_low
+ 3.940000000e-08 V_low
+ 3.940100000e-08 V_low
+ 3.950000000e-08 V_low
+ 3.950100000e-08 V_low
+ 3.960000000e-08 V_low
+ 3.960100000e-08 V_low
+ 3.970000000e-08 V_low
+ 3.970100000e-08 V_low
+ 3.980000000e-08 V_low
+ 3.980100000e-08 V_low
+ 3.990000000e-08 V_low
+ 3.990100000e-08 V_hig
+ 4.000000000e-08 V_hig
+ 4.000100000e-08 V_hig
+ 4.010000000e-08 V_hig
+ 4.010100000e-08 V_hig
+ 4.020000000e-08 V_hig
+ 4.020100000e-08 V_hig
+ 4.030000000e-08 V_hig
+ 4.030100000e-08 V_hig
+ 4.040000000e-08 V_hig
+ 4.040100000e-08 V_hig
+ 4.050000000e-08 V_hig
+ 4.050100000e-08 V_hig
+ 4.060000000e-08 V_hig
+ 4.060100000e-08 V_hig
+ 4.070000000e-08 V_hig
+ 4.070100000e-08 V_hig
+ 4.080000000e-08 V_hig
+ 4.080100000e-08 V_hig
+ 4.090000000e-08 V_hig
+ 4.090100000e-08 V_hig
+ 4.100000000e-08 V_hig
+ 4.100100000e-08 V_hig
+ 4.110000000e-08 V_hig
+ 4.110100000e-08 V_hig
+ 4.120000000e-08 V_hig
+ 4.120100000e-08 V_hig
+ 4.130000000e-08 V_hig
+ 4.130100000e-08 V_hig
+ 4.140000000e-08 V_hig
+ 4.140100000e-08 V_hig
+ 4.150000000e-08 V_hig
+ 4.150100000e-08 V_hig
+ 4.160000000e-08 V_hig
+ 4.160100000e-08 V_hig
+ 4.170000000e-08 V_hig
+ 4.170100000e-08 V_hig
+ 4.180000000e-08 V_hig
+ 4.180100000e-08 V_hig
+ 4.190000000e-08 V_hig
+ 4.190100000e-08 V_low
+ 4.200000000e-08 V_low
+ 4.200100000e-08 V_low
+ 4.210000000e-08 V_low
+ 4.210100000e-08 V_low
+ 4.220000000e-08 V_low
+ 4.220100000e-08 V_low
+ 4.230000000e-08 V_low
+ 4.230100000e-08 V_low
+ 4.240000000e-08 V_low
+ 4.240100000e-08 V_low
+ 4.250000000e-08 V_low
+ 4.250100000e-08 V_low
+ 4.260000000e-08 V_low
+ 4.260100000e-08 V_low
+ 4.270000000e-08 V_low
+ 4.270100000e-08 V_low
+ 4.280000000e-08 V_low
+ 4.280100000e-08 V_low
+ 4.290000000e-08 V_low
+ 4.290100000e-08 V_hig
+ 4.300000000e-08 V_hig
+ 4.300100000e-08 V_hig
+ 4.310000000e-08 V_hig
+ 4.310100000e-08 V_hig
+ 4.320000000e-08 V_hig
+ 4.320100000e-08 V_hig
+ 4.330000000e-08 V_hig
+ 4.330100000e-08 V_hig
+ 4.340000000e-08 V_hig
+ 4.340100000e-08 V_hig
+ 4.350000000e-08 V_hig
+ 4.350100000e-08 V_hig
+ 4.360000000e-08 V_hig
+ 4.360100000e-08 V_hig
+ 4.370000000e-08 V_hig
+ 4.370100000e-08 V_hig
+ 4.380000000e-08 V_hig
+ 4.380100000e-08 V_hig
+ 4.390000000e-08 V_hig
+ 4.390100000e-08 V_hig
+ 4.400000000e-08 V_hig
+ 4.400100000e-08 V_hig
+ 4.410000000e-08 V_hig
+ 4.410100000e-08 V_hig
+ 4.420000000e-08 V_hig
+ 4.420100000e-08 V_hig
+ 4.430000000e-08 V_hig
+ 4.430100000e-08 V_hig
+ 4.440000000e-08 V_hig
+ 4.440100000e-08 V_hig
+ 4.450000000e-08 V_hig
+ 4.450100000e-08 V_hig
+ 4.460000000e-08 V_hig
+ 4.460100000e-08 V_hig
+ 4.470000000e-08 V_hig
+ 4.470100000e-08 V_hig
+ 4.480000000e-08 V_hig
+ 4.480100000e-08 V_hig
+ 4.490000000e-08 V_hig
+ 4.490100000e-08 V_hig
+ 4.500000000e-08 V_hig
+ 4.500100000e-08 V_hig
+ 4.510000000e-08 V_hig
+ 4.510100000e-08 V_hig
+ 4.520000000e-08 V_hig
+ 4.520100000e-08 V_hig
+ 4.530000000e-08 V_hig
+ 4.530100000e-08 V_hig
+ 4.540000000e-08 V_hig
+ 4.540100000e-08 V_hig
+ 4.550000000e-08 V_hig
+ 4.550100000e-08 V_hig
+ 4.560000000e-08 V_hig
+ 4.560100000e-08 V_hig
+ 4.570000000e-08 V_hig
+ 4.570100000e-08 V_hig
+ 4.580000000e-08 V_hig
+ 4.580100000e-08 V_hig
+ 4.590000000e-08 V_hig
+ 4.590100000e-08 V_low
+ 4.600000000e-08 V_low
+ 4.600100000e-08 V_low
+ 4.610000000e-08 V_low
+ 4.610100000e-08 V_low
+ 4.620000000e-08 V_low
+ 4.620100000e-08 V_low
+ 4.630000000e-08 V_low
+ 4.630100000e-08 V_low
+ 4.640000000e-08 V_low
+ 4.640100000e-08 V_low
+ 4.650000000e-08 V_low
+ 4.650100000e-08 V_low
+ 4.660000000e-08 V_low
+ 4.660100000e-08 V_low
+ 4.670000000e-08 V_low
+ 4.670100000e-08 V_low
+ 4.680000000e-08 V_low
+ 4.680100000e-08 V_low
+ 4.690000000e-08 V_low
+ 4.690100000e-08 V_hig
+ 4.700000000e-08 V_hig
+ 4.700100000e-08 V_hig
+ 4.710000000e-08 V_hig
+ 4.710100000e-08 V_hig
+ 4.720000000e-08 V_hig
+ 4.720100000e-08 V_hig
+ 4.730000000e-08 V_hig
+ 4.730100000e-08 V_hig
+ 4.740000000e-08 V_hig
+ 4.740100000e-08 V_hig
+ 4.750000000e-08 V_hig
+ 4.750100000e-08 V_hig
+ 4.760000000e-08 V_hig
+ 4.760100000e-08 V_hig
+ 4.770000000e-08 V_hig
+ 4.770100000e-08 V_hig
+ 4.780000000e-08 V_hig
+ 4.780100000e-08 V_hig
+ 4.790000000e-08 V_hig
+ 4.790100000e-08 V_low
+ 4.800000000e-08 V_low
+ 4.800100000e-08 V_low
+ 4.810000000e-08 V_low
+ 4.810100000e-08 V_low
+ 4.820000000e-08 V_low
+ 4.820100000e-08 V_low
+ 4.830000000e-08 V_low
+ 4.830100000e-08 V_low
+ 4.840000000e-08 V_low
+ 4.840100000e-08 V_low
+ 4.850000000e-08 V_low
+ 4.850100000e-08 V_low
+ 4.860000000e-08 V_low
+ 4.860100000e-08 V_low
+ 4.870000000e-08 V_low
+ 4.870100000e-08 V_low
+ 4.880000000e-08 V_low
+ 4.880100000e-08 V_low
+ 4.890000000e-08 V_low
+ 4.890100000e-08 V_low
+ 4.900000000e-08 V_low
+ 4.900100000e-08 V_low
+ 4.910000000e-08 V_low
+ 4.910100000e-08 V_low
+ 4.920000000e-08 V_low
+ 4.920100000e-08 V_low
+ 4.930000000e-08 V_low
+ 4.930100000e-08 V_low
+ 4.940000000e-08 V_low
+ 4.940100000e-08 V_low
+ 4.950000000e-08 V_low
+ 4.950100000e-08 V_low
+ 4.960000000e-08 V_low
+ 4.960100000e-08 V_low
+ 4.970000000e-08 V_low
+ 4.970100000e-08 V_low
+ 4.980000000e-08 V_low
+ 4.980100000e-08 V_low
+ 4.990000000e-08 V_low
+ 4.990100000e-08 V_hig
+ 5.000000000e-08 V_hig
+ 5.000100000e-08 V_hig
+ 5.010000000e-08 V_hig
+ 5.010100000e-08 V_hig
+ 5.020000000e-08 V_hig
+ 5.020100000e-08 V_hig
+ 5.030000000e-08 V_hig
+ 5.030100000e-08 V_hig
+ 5.040000000e-08 V_hig
+ 5.040100000e-08 V_hig
+ 5.050000000e-08 V_hig
+ 5.050100000e-08 V_hig
+ 5.060000000e-08 V_hig
+ 5.060100000e-08 V_hig
+ 5.070000000e-08 V_hig
+ 5.070100000e-08 V_hig
+ 5.080000000e-08 V_hig
+ 5.080100000e-08 V_hig
+ 5.090000000e-08 V_hig
+ 5.090100000e-08 V_low
+ 5.100000000e-08 V_low
+ 5.100100000e-08 V_low
+ 5.110000000e-08 V_low
+ 5.110100000e-08 V_low
+ 5.120000000e-08 V_low
+ 5.120100000e-08 V_low
+ 5.130000000e-08 V_low
+ 5.130100000e-08 V_low
+ 5.140000000e-08 V_low
+ 5.140100000e-08 V_low
+ 5.150000000e-08 V_low
+ 5.150100000e-08 V_low
+ 5.160000000e-08 V_low
+ 5.160100000e-08 V_low
+ 5.170000000e-08 V_low
+ 5.170100000e-08 V_low
+ 5.180000000e-08 V_low
+ 5.180100000e-08 V_low
+ 5.190000000e-08 V_low
+ 5.190100000e-08 V_low
+ 5.200000000e-08 V_low
+ 5.200100000e-08 V_low
+ 5.210000000e-08 V_low
+ 5.210100000e-08 V_low
+ 5.220000000e-08 V_low
+ 5.220100000e-08 V_low
+ 5.230000000e-08 V_low
+ 5.230100000e-08 V_low
+ 5.240000000e-08 V_low
+ 5.240100000e-08 V_low
+ 5.250000000e-08 V_low
+ 5.250100000e-08 V_low
+ 5.260000000e-08 V_low
+ 5.260100000e-08 V_low
+ 5.270000000e-08 V_low
+ 5.270100000e-08 V_low
+ 5.280000000e-08 V_low
+ 5.280100000e-08 V_low
+ 5.290000000e-08 V_low
+ 5.290100000e-08 V_hig
+ 5.300000000e-08 V_hig
+ 5.300100000e-08 V_hig
+ 5.310000000e-08 V_hig
+ 5.310100000e-08 V_hig
+ 5.320000000e-08 V_hig
+ 5.320100000e-08 V_hig
+ 5.330000000e-08 V_hig
+ 5.330100000e-08 V_hig
+ 5.340000000e-08 V_hig
+ 5.340100000e-08 V_hig
+ 5.350000000e-08 V_hig
+ 5.350100000e-08 V_hig
+ 5.360000000e-08 V_hig
+ 5.360100000e-08 V_hig
+ 5.370000000e-08 V_hig
+ 5.370100000e-08 V_hig
+ 5.380000000e-08 V_hig
+ 5.380100000e-08 V_hig
+ 5.390000000e-08 V_hig
+ 5.390100000e-08 V_low
+ 5.400000000e-08 V_low
+ 5.400100000e-08 V_low
+ 5.410000000e-08 V_low
+ 5.410100000e-08 V_low
+ 5.420000000e-08 V_low
+ 5.420100000e-08 V_low
+ 5.430000000e-08 V_low
+ 5.430100000e-08 V_low
+ 5.440000000e-08 V_low
+ 5.440100000e-08 V_low
+ 5.450000000e-08 V_low
+ 5.450100000e-08 V_low
+ 5.460000000e-08 V_low
+ 5.460100000e-08 V_low
+ 5.470000000e-08 V_low
+ 5.470100000e-08 V_low
+ 5.480000000e-08 V_low
+ 5.480100000e-08 V_low
+ 5.490000000e-08 V_low
+ 5.490100000e-08 V_hig
+ 5.500000000e-08 V_hig
+ 5.500100000e-08 V_hig
+ 5.510000000e-08 V_hig
+ 5.510100000e-08 V_hig
+ 5.520000000e-08 V_hig
+ 5.520100000e-08 V_hig
+ 5.530000000e-08 V_hig
+ 5.530100000e-08 V_hig
+ 5.540000000e-08 V_hig
+ 5.540100000e-08 V_hig
+ 5.550000000e-08 V_hig
+ 5.550100000e-08 V_hig
+ 5.560000000e-08 V_hig
+ 5.560100000e-08 V_hig
+ 5.570000000e-08 V_hig
+ 5.570100000e-08 V_hig
+ 5.580000000e-08 V_hig
+ 5.580100000e-08 V_hig
+ 5.590000000e-08 V_hig
+ 5.590100000e-08 V_hig
+ 5.600000000e-08 V_hig
+ 5.600100000e-08 V_hig
+ 5.610000000e-08 V_hig
+ 5.610100000e-08 V_hig
+ 5.620000000e-08 V_hig
+ 5.620100000e-08 V_hig
+ 5.630000000e-08 V_hig
+ 5.630100000e-08 V_hig
+ 5.640000000e-08 V_hig
+ 5.640100000e-08 V_hig
+ 5.650000000e-08 V_hig
+ 5.650100000e-08 V_hig
+ 5.660000000e-08 V_hig
+ 5.660100000e-08 V_hig
+ 5.670000000e-08 V_hig
+ 5.670100000e-08 V_hig
+ 5.680000000e-08 V_hig
+ 5.680100000e-08 V_hig
+ 5.690000000e-08 V_hig
+ 5.690100000e-08 V_hig
+ 5.700000000e-08 V_hig
+ 5.700100000e-08 V_hig
+ 5.710000000e-08 V_hig
+ 5.710100000e-08 V_hig
+ 5.720000000e-08 V_hig
+ 5.720100000e-08 V_hig
+ 5.730000000e-08 V_hig
+ 5.730100000e-08 V_hig
+ 5.740000000e-08 V_hig
+ 5.740100000e-08 V_hig
+ 5.750000000e-08 V_hig
+ 5.750100000e-08 V_hig
+ 5.760000000e-08 V_hig
+ 5.760100000e-08 V_hig
+ 5.770000000e-08 V_hig
+ 5.770100000e-08 V_hig
+ 5.780000000e-08 V_hig
+ 5.780100000e-08 V_hig
+ 5.790000000e-08 V_hig
+ 5.790100000e-08 V_hig
+ 5.800000000e-08 V_hig
+ 5.800100000e-08 V_hig
+ 5.810000000e-08 V_hig
+ 5.810100000e-08 V_hig
+ 5.820000000e-08 V_hig
+ 5.820100000e-08 V_hig
+ 5.830000000e-08 V_hig
+ 5.830100000e-08 V_hig
+ 5.840000000e-08 V_hig
+ 5.840100000e-08 V_hig
+ 5.850000000e-08 V_hig
+ 5.850100000e-08 V_hig
+ 5.860000000e-08 V_hig
+ 5.860100000e-08 V_hig
+ 5.870000000e-08 V_hig